Version 4
SHEET 1 2712 680
WIRE 96 32 16 32
WIRE 480 32 384 32
WIRE 592 32 480 32
WIRE 656 32 592 32
WIRE 720 32 656 32
WIRE 880 32 720 32
WIRE 1040 32 976 32
WIRE 1280 32 1120 32
WIRE 1344 32 1280 32
WIRE 1488 32 1344 32
WIRE 1520 32 1488 32
WIRE 16 64 16 32
WIRE 592 80 592 32
WIRE 720 80 720 32
WIRE 1280 96 1280 32
WIRE 1344 96 1344 32
WIRE 1520 96 1520 32
WIRE 96 112 96 32
WIRE 480 112 480 96
WIRE 480 112 96 112
WIRE 1040 112 1040 32
WIRE 384 128 384 96
WIRE 384 128 224 128
WIRE 896 128 896 80
WIRE 896 128 880 128
WIRE 384 144 384 128
WIRE 480 144 480 112
WIRE 16 160 16 144
WIRE 224 160 224 128
WIRE 224 160 16 160
WIRE 816 176 816 80
WIRE 1808 192 1728 192
WIRE 432 208 384 208
WIRE 480 208 432 208
WIRE 592 208 592 144
WIRE 592 208 480 208
WIRE 720 208 720 144
WIRE 720 208 592 208
WIRE 880 208 720 208
WIRE 1040 208 1040 176
WIRE 1040 208 880 208
WIRE 1280 208 1280 160
WIRE 1280 208 1040 208
WIRE 1344 208 1344 160
WIRE 1344 208 1280 208
WIRE 1520 208 1520 176
WIRE 1520 208 1344 208
WIRE 880 224 880 208
WIRE 432 240 432 208
WIRE 1808 320 1664 320
WIRE 864 384 848 384
WIRE 1808 384 1776 384
WIRE 1776 400 1776 384
WIRE 1776 400 1664 400
WIRE 784 432 784 336
WIRE 848 480 848 464
FLAG 432 240 0
FLAG 2208 224 SW
FLAG 656 32 vrec
FLAG 1968 48 0
FLAG 1968 448 0
FLAG 2128 352 0
FLAG 1664 464 0
FLAG 1728 272 0
FLAG 1488 32 vout
FLAG 1728 112 vout
FLAG 784 336 SW
FLAG 864 384 SW1
FLAG 848 480 0
FLAG 848 288 vrec
FLAG 816 80 SW1
SYMBOL voltage 16 48 R0
WINDOW 123 0 0 Left 0
WINDOW 39 0 0 Left 0
SYMATTR InstName V1
SYMATTR Value SINE(0 120 60)
SYMBOL diode 496 208 R180
WINDOW 0 24 64 Left 2
WINDOW 3 24 0 Left 2
SYMATTR InstName D2
SYMATTR Value RFN20NS6S
SYMBOL res 1504 80 R0
SYMATTR InstName R1
SYMATTR Value 33
SYMBOL diode 400 208 R180
WINDOW 0 24 64 Left 2
WINDOW 3 24 0 Left 2
SYMATTR InstName D1
SYMATTR Value RFN20NS6S
SYMBOL diode 400 96 R180
WINDOW 0 24 64 Left 2
WINDOW 3 24 0 Left 2
SYMATTR InstName D3
SYMATTR Value RFN20NS6S
SYMBOL diode 496 96 R180
WINDOW 0 24 64 Left 2
WINDOW 3 24 0 Left 2
SYMATTR InstName D4
SYMATTR Value RFN20NS6S
SYMBOL polcap 576 80 R0
WINDOW 3 24 56 Left 2
SYMATTR Value 100n
SYMATTR InstName C1
SYMATTR Description Capacitor
SYMATTR Type cap
SYMATTR SpiceLine V=300
SYMBOL ind 1136 16 R90
WINDOW 0 5 56 VBottom 2
WINDOW 3 32 56 VTop 2
SYMATTR InstName L1
SYMATTR Value 100µ
SYMATTR SpiceLine Ipk=23 Rser=0.0251 Rpar=6432 Cpar=41.625p mfg="Bourns, Inc." pn="SRP1770TA-220M"
SYMBOL diode 1056 176 R180
WINDOW 0 24 64 Left 2
WINDOW 3 24 0 Left 0
SYMATTR InstName D5
SYMATTR Value RFN30TS6D
SYMBOL polcap 1264 96 R0
WINDOW 3 24 56 Left 2
SYMATTR Value 100µ
SYMATTR InstName C2
SYMATTR Description Capacitor
SYMATTR Type cap
SYMATTR SpiceLine V=100 Irms=1.33 Rser=0.047 Lser=0
SYMBOL cap 1328 96 R0
SYMATTR InstName C3
SYMATTR Value 10µ
SYMATTR SpiceLine V=35 Irms=8.06 Rser=0.00577565 Lser=0 mfg="KEMET" pn="C1210C106K6PAC" type="X5R"
SYMBOL polcap 704 80 R0
WINDOW 3 24 56 Left 2
SYMATTR Value 100µ
SYMATTR InstName C4
SYMATTR Description Capacitor
SYMATTR Type cap
SYMATTR SpiceLine V=100 Irms=1.33 Rser=0.047 Lser=0 mfg="Nichicon" pn="UPR2A102MRH" type="Al electrolytic"
SYMBOL nmos 976 80 M270
SYMATTR InstName M2
SYMATTR Value BSB012N03LX3
SYMBOL pnp 816 32 R0
SYMATTR InstName Q1
SYMBOL npn 816 224 M180
SYMATTR InstName Q2
SYMBOL voltage 1968 144 R180
WINDOW 0 24 96 Left 2
WINDOW 3 24 16 Left 2
WINDOW 123 0 0 Left 0
WINDOW 39 0 0 Left 0
SYMATTR InstName V3
SYMATTR Value 10
SYMBOL res 1648 304 R0
SYMATTR InstName R2
SYMATTR Value 12k
SYMBOL cap 1648 400 R0
SYMATTR InstName C5
SYMATTR Value 220p
SYMBOL res 1712 96 R0
SYMATTR InstName R3
SYMATTR Value 100k
SYMBOL res 1712 176 R0
SYMATTR InstName R4
SYMATTR Value 10k
SYMBOL res 2224 208 R90
WINDOW 0 0 56 VBottom 2
WINDOW 3 32 56 VTop 2
SYMATTR InstName R5
SYMATTR Value 12
SYMBOL PowerProducts\\LT1243 1968 288 R0
SYMATTR InstName U1
SYMBOL pnp 784 288 R0
SYMATTR InstName Q3
SYMBOL npn 784 480 M180
SYMATTR InstName Q4
TEXT -16 264 Left 2 !.tran 0 100m 0 10u
