Version 4
SHEET 1 3284 1056
WIRE -256 -16 -336 -16
WIRE 128 -16 32 -16
WIRE 240 -16 128 -16
WIRE 256 -16 240 -16
WIRE 368 -16 336 -16
WIRE 560 -16 368 -16
WIRE 944 -16 560 -16
WIRE 992 -16 944 -16
WIRE 1184 -16 1072 -16
WIRE 1248 -16 1184 -16
WIRE 1424 -16 1248 -16
WIRE -336 16 -336 -16
WIRE 240 32 240 -16
WIRE 368 32 368 -16
WIRE 1184 48 1184 -16
WIRE 1248 48 1248 -16
WIRE 1424 48 1424 -16
WIRE -256 64 -256 -16
WIRE -224 64 -256 64
WIRE 128 64 128 48
WIRE 128 64 -144 64
WIRE 944 64 944 -16
WIRE 32 80 32 48
WIRE 32 80 -128 80
WIRE 32 96 32 80
WIRE 128 96 128 64
WIRE -336 112 -336 96
WIRE -128 112 -128 80
WIRE -128 112 -336 112
WIRE 1728 112 1728 80
WIRE 2576 144 2576 80
WIRE 80 160 32 160
WIRE 128 160 80 160
WIRE 240 160 240 96
WIRE 240 160 128 160
WIRE 368 160 368 96
WIRE 368 160 240 160
WIRE 608 160 592 160
WIRE 704 160 688 160
WIRE 768 160 704 160
WIRE 944 160 944 128
WIRE 944 160 864 160
WIRE 1024 160 944 160
WIRE 1184 160 1184 112
WIRE 1184 160 1024 160
WIRE 1248 160 1248 112
WIRE 1248 160 1184 160
WIRE 1424 160 1424 128
WIRE 1424 160 1248 160
WIRE 80 192 80 160
WIRE 1728 192 1728 176
WIRE 1728 192 1648 192
WIRE 592 208 592 160
WIRE 704 208 704 160
WIRE 2320 208 2256 208
WIRE 2400 208 2400 192
WIRE 2416 208 2400 208
WIRE 1728 224 1728 192
WIRE 2416 272 2256 272
WIRE 1856 304 1728 304
WIRE 2416 336 2272 336
WIRE 1776 384 1728 384
WIRE 2416 400 2384 400
WIRE 2384 416 2384 400
WIRE 2384 416 2272 416
FLAG 80 192 0
FLAG 2736 240 SW
FLAG 560 -16 vrec
FLAG 3072 0 0
FLAG 2576 464 0
FLAG 2272 480 0
FLAG 1776 384 0
FLAG 1424 -16 vout
FLAG 1728 80 vout
FLAG 784 208 SW
FLAG 1856 304 vrefdiv
FLAG 3072 80 10v
FLAG 2576 80 10v
FLAG 2400 192 vrefdiv
FLAG 592 208 0
FLAG 1024 160 0
FLAG 704 208 ISEN
FLAG 2736 368 ISEN
FLAG 1648 256 0
SYMBOL voltage -336 0 R0
WINDOW 123 0 0 Left 0
WINDOW 39 0 0 Left 0
SYMATTR InstName V1
SYMATTR Value SINE(0 120 60)
SYMBOL diode 144 160 R180
WINDOW 0 24 64 Left 2
WINDOW 3 24 0 Left 2
SYMATTR InstName D2
SYMATTR Value RFN20NS6S
SYMBOL res 1408 32 R0
SYMATTR InstName R1
SYMATTR Value 33
SYMBOL diode 48 160 R180
WINDOW 0 24 64 Left 2
WINDOW 3 24 0 Left 2
SYMATTR InstName D1
SYMATTR Value RFN20NS6S
SYMBOL diode 48 48 R180
WINDOW 0 24 64 Left 2
WINDOW 3 24 0 Left 2
SYMATTR InstName D3
SYMATTR Value RFN20NS6S
SYMBOL diode 144 48 R180
WINDOW 0 24 64 Left 2
WINDOW 3 24 0 Left 2
SYMATTR InstName D4
SYMATTR Value RFN20NS6S
SYMBOL polcap 224 32 R0
WINDOW 3 24 56 Left 2
SYMATTR Value 100n
SYMATTR InstName C1
SYMATTR Description Capacitor
SYMATTR Type cap
SYMATTR SpiceLine V=300
SYMBOL diode 960 128 R180
WINDOW 0 24 64 Left 2
WINDOW 3 24 0 Left 0
SYMATTR InstName D5
SYMATTR Value RFN30TS6D
SYMBOL polcap 1168 48 R0
WINDOW 3 24 56 Left 2
SYMATTR Value 100µ
SYMATTR InstName C2
SYMATTR Description Capacitor
SYMATTR Type cap
SYMATTR SpiceLine V=100 Irms=1.33 Rser=0.047 Lser=0
SYMBOL cap 1232 48 R0
SYMATTR InstName C3
SYMATTR Value 20µ
SYMATTR SpiceLine V=35 Irms=8.06 Rser=0.00577565 Lser=0 mfg="KEMET" pn="C1210C106K6PAC" type="X5R"
SYMBOL polcap 352 32 R0
WINDOW 3 24 56 Left 2
SYMATTR Value 1µ
SYMATTR InstName C4
SYMATTR Description Capacitor
SYMATTR Type cap
SYMATTR SpiceLine V=100 Irms=1.33 Rser=0.047 Lser=0 mfg="Nichicon" pn="UPR2A102MRH" type="Al electrolytic"
SYMBOL voltage 3072 96 R180
WINDOW 0 24 96 Left 2
WINDOW 3 24 16 Left 2
WINDOW 123 0 0 Left 0
WINDOW 39 0 0 Left 0
SYMATTR InstName V3
SYMATTR Value 10
SYMBOL res 2256 320 R0
SYMATTR InstName R2
SYMATTR Value 12k
SYMBOL cap 2256 416 R0
SYMATTR InstName C5
SYMATTR Value 220p
SYMBOL res 1712 208 R0
SYMATTR InstName R3
SYMATTR Value 100k
SYMBOL res 1712 288 R0
SYMATTR InstName R4
SYMATTR Value 12.4k
SYMBOL PowerProducts\\LT1243 2576 304 R0
SYMATTR InstName U1
SYMBOL res -128 48 R90
WINDOW 0 0 56 VBottom 2
WINDOW 3 32 56 VTop 2
SYMATTR InstName R6
SYMATTR Value .1
SYMBOL nmos 864 208 M270
SYMATTR InstName M2
SYMATTR Value BSC024NE2LS
SYMBOL res 800 192 R90
WINDOW 0 0 56 VBottom 2
WINDOW 3 32 56 VTop 2
SYMATTR InstName R9
SYMATTR Value 100k
SYMBOL ind 352 -32 R90
WINDOW 0 5 56 VBottom 2
WINDOW 3 32 56 VTop 2
SYMATTR InstName L2
SYMATTR Value 4.7µ
SYMATTR SpiceLine Ipk=10 Rser=0.03711 Rpar=0 Cpar=0 mfg="Vishay" pn="IHLP2525CZ07-4R7"
SYMBOL ind 1088 -32 R90
WINDOW 0 5 56 VBottom 2
WINDOW 3 32 56 VTop 2
SYMATTR InstName L1
SYMATTR Value 4.7µ
SYMATTR SpiceLine Ipk=10 Rser=0.03711 Rpar=0 Cpar=0 mfg="Vishay" pn="IHLP2525CZ07-4R7"
SYMBOL res 704 144 R90
WINDOW 0 0 56 VBottom 2
WINDOW 3 32 56 VTop 2
SYMATTR InstName R5
SYMATTR Value 15m
SYMBOL diode 1712 112 R0
SYMATTR InstName D6
SYMATTR Value MUR460
SYMBOL cap 1632 192 R0
SYMATTR InstName C7
SYMATTR Value 100p
SYMBOL res 2416 192 R90
WINDOW 0 0 56 VBottom 2
WINDOW 3 32 56 VTop 2
SYMATTR InstName R7
SYMATTR Value 200
SYMBOL cap 2240 208 R0
SYMATTR InstName C6
SYMATTR Value 10n
TEXT -368 216 Left 2 !.tran 0 20m 0 10u
