Version 4
SHEET 1 880 680
WIRE 48 160 -32 160
WIRE 96 160 48 160
WIRE 224 160 176 160
WIRE 272 160 224 160
WIRE 384 160 272 160
WIRE 512 160 464 160
WIRE 640 160 592 160
WIRE 768 160 640 160
WIRE 48 176 48 160
WIRE 224 176 224 160
WIRE 272 176 272 160
WIRE 48 240 -32 240
WIRE 224 240 48 240
WIRE 272 240 224 240
WIRE 640 240 640 224
WIRE 640 240 272 240
WIRE 768 240 640 240
FLAG -32 240 0
SYMBOL voltage -32 144 R0
WINDOW 123 0 0 Left 0
WINDOW 39 0 0 Left 0
SYMATTR InstName V1
SYMATTR Value PULSE(0 24 0 10n 10n 2.2u 10u)
SYMBOL cap 624 160 R0
SYMATTR InstName C1
SYMATTR Value 376µ
SYMBOL ind 192 144 R90
WINDOW 0 5 56 VBottom 2
WINDOW 3 32 56 VTop 2
SYMATTR InstName L1
SYMATTR Value 3.3µ
SYMATTR SpiceLine Ipk=1 Rser=0.08 Rpar=0 Cpar=0 mfg="Murata" pn="1225AS-H-3R3M=P2"
SYMBOL res 752 144 R0
SYMATTR InstName R1
SYMATTR Value 120
SYMBOL schottky 240 240 R180
WINDOW 0 24 64 Left 2
WINDOW 3 24 0 Left 2
SYMATTR InstName D1
SYMATTR Value 1N5819
SYMATTR Description Diode
SYMATTR Type diode
SYMBOL cap 32 176 R0
SYMATTR InstName C2
SYMATTR Value 47µ
SYMBOL ind 608 144 R90
WINDOW 0 5 56 VBottom 2
WINDOW 3 32 56 VTop 2
SYMATTR InstName L2
SYMATTR Value 33µ
SYMBOL cap 256 176 R0
SYMATTR InstName C3
SYMATTR Value 47µ
SYMBOL res 480 144 R90
WINDOW 0 0 56 VBottom 2
WINDOW 3 32 56 VTop 2
SYMATTR InstName R2
SYMATTR Value .33
TEXT -32 360 Left 2 !.tran 0 8m 0 1u
